Output_case1_3p/output_current_566.csv
# Output_case1_3p\output_current_566.csv run at 2000-01-01 09:26:00 EST on 907 links
link_name,currA_mag,currA_angle,currB_mag,currB_angle,currC_mag,currC_angle
Source_Impedance,2.622693,-0.318755,2.622693,3.870035,2.622693,1.775640
TR1,2.622693,-0.318755,2.622693,3.870035,2.622693,1.775640
LINE1,69.350061,-0.842354,69.350061,3.346436,69.350061,1.252041
LINE2,69.350061,-0.842354,69.350061,3.346436,69.350061,1.252041
LINE3,69.350061,-0.842354,69.350061,3.346436,69.350061,1.252041
LINE4,69.350061,-0.842354,69.350061,3.346436,69.350061,1.252041
LINE5,69.350061,-0.842354,69.350061,3.346436,69.350061,1.252041
LINE6,69.350061,-0.842354,69.350061,3.346436,69.350061,1.252041
LINE7,69.350061,-0.842354,69.350061,3.346436,69.350061,1.252041
LINE8,69.350061,-0.842354,69.350061,3.346436,69.350061,1.252041
LINE9,69.350061,-0.842354,69.350061,3.346436,69.350061,1.252041
LINE10,69.350061,-0.842354,69.350061,3.346436,69.350061,1.252041
LINE11,69.350061,-0.842354,69.350061,3.346436,69.350061,1.252041
LINE12,69.350061,-0.842354,69.350061,3.346436,69.350061,1.252041
LINE13,69.350061,-0.842354,69.350061,3.346436,69.350061,1.252041
LINE14,69.350061,-0.842354,69.350061,3.346436,69.350061,1.252041
LINE15,0.000000,3.936528,0.000000,3.952863,0.000000,1.523851
LINE16,69.350061,-0.842354,69.350061,3.346436,69.350061,1.252041
LINE17,0.000000,3.580308,0.000000,3.902059,0.000000,1.469839
LINE18,69.350061,-0.842354,69.350061,3.346436,69.350061,1.252041
LINE19,0.000000,3.216329,0.000000,3.942038,0.000000,1.413825
LINE20,69.350061,-0.842354,69.350061,3.346436,69.350061,1.252041
LINE21,0.000000,3.116661,0.000000,3.902059,0.000000,-0.024932
LINE22,69.350061,-0.842354,69.350061,3.346436,69.350061,1.252041
LINE23,0.000000,3.902059,0.000000,3.936528,0.000000,1.458199
LINE24,69.350061,-0.842354,69.350061,3.346436,69.350061,1.252041
LINE25,0.000000,4.687457,0.000000,3.821155,0.000000,1.491231
LINE26,1.013468,-0.843613,1.013468,3.345177,1.013468,1.250782
LINE27,68.336594,-0.842336,68.336594,3.346455,68.336594,1.252060
LINE28,0.000000,4.409157,0.000000,3.873495,0.000000,1.502922
LINE29,0.721752,-0.843612,0.721752,3.345178,0.721752,1.250783
LINE30,0.291716,-0.843614,0.291716,3.345176,0.291716,1.250781
LINE31,68.336594,-0.842336,68.336594,3.346455,68.336594,1.252060
LINE32,0.000000,-1.364638,0.000000,3.823569,0.000000,1.497562
LINE33,0.721752,-0.843612,0.721752,3.345178,0.721752,1.250783
LINE34,0.291716,-0.843614,0.291716,3.345176,0.291716,1.250781
LINE35,6.309324,-0.843316,6.309324,3.345474,6.309324,1.251079
LINE36,62.027273,-0.842236,62.027273,3.346554,62.027273,1.252159
LINE37,0.000000,-1.471373,0.000000,3.794047,0.000000,1.486225
LINE38,0.291716,-0.843614,0.291716,3.345176,0.291716,1.250781
LINE39,2.784944,-0.843319,2.784944,3.345472,2.784944,1.251076
LINE40,3.524380,-0.843315,3.524380,3.345476,3.524380,1.251081
LINE41,62.027273,-0.842236,62.027273,3.346554,62.027273,1.252159
LINE42,0.000000,4.634306,0.000000,3.726065,0.000000,3.662229
LINE43,0.000000,3.902059,0.000000,3.727387,0.000000,1.456261
LINE44,0.291716,-0.843614,0.291716,3.345176,0.291716,1.250781
LINE45,2.784944,-0.843319,2.784944,3.345472,2.784944,1.251076
LINE46,3.524380,-0.843315,3.524380,3.345476,3.524380,1.251081
LINE47,62.027273,-0.842236,62.027273,3.346554,62.027273,1.252159
LINE48,0.000000,4.184559,0.000000,3.664210,0.000000,3.891985
LINE49,0.000000,3.902059,0.000000,3.811399,0.000000,1.520479
LINE50,0.291716,-0.843614,0.291716,3.345176,0.291716,1.250781
LINE51,2.784944,-0.843319,2.784944,3.345472,2.784944,1.251076
LINE52,62.027273,-0.842236,62.027273,3.346554,62.027273,1.252159
LINE53,0.000000,3.781342,0.000000,-0.486960,0.000000,1.332494
LINE54,0.000000,4.229936,0.000000,4.055041,0.000000,3.914736
LINE55,0.000000,3.835491,0.000000,3.727387,0.000000,1.413825
LINE56,0.291716,-0.843614,0.291716,3.345176,0.291716,1.250781
LINE57,2.784944,-0.843319,2.784944,3.345472,2.784944,1.251076
LINE58,62.027273,-0.842236,62.027273,3.346554,62.027273,1.252159
LINE59,0.000000,3.385422,0.000000,0.166386,0.000000,1.188495
LINE60,0.000000,4.569126,0.000000,3.753197,0.000000,3.633051
LINE61,0.000000,4.409157,0.000000,3.811399,0.000000,1.504872
LINE62,0.291716,-0.843614,0.291716,3.345176,0.291716,1.250781
LINE63,2.784944,-0.843319,2.784944,3.345472,2.784944,1.251076
LINE64,61.604418,-0.842230,61.604418,3.346560,61.604418,1.252165
LINE65,0.422855,-0.842999,0.422855,3.345791,0.422855,1.251396
LINE66,0.000000,3.490384,0.000000,-0.439703,0.000000,1.610393
LINE67,0.000000,4.529932,0.000000,3.865171,0.000000,3.670578
LINE68,0.000000,3.902059,0.000000,3.657080,0.000000,1.551073
LINE69,0.291716,-0.843614,0.291716,3.345176,0.291716,1.250781
LINE70,2.784944,-0.843319,2.784944,3.345472,2.784944,1.251076
LINE71,61.604418,-0.842230,61.604418,3.346560,61.604418,1.252165
LINE72,0.061850,-0.843000,0.061850,3.345790,0.061850,1.251395
LINE73,0.361005,-0.842999,0.361005,3.345792,0.361005,1.251396
LINE74,0.000000,3.683361,0.000000,-1.183210,0.000000,1.664908
LINE75,0.000000,4.354794,0.000000,3.919494,0.000000,3.947543
LINE76,0.000000,4.023411,0.000000,3.580308,0.000000,1.547968
LINE77,2.784944,-0.843319,2.784944,3.345472,2.784944,1.251076
LINE78,61.604418,-0.842230,61.604418,3.346560,61.604418,1.252165
LINE79,0.000000,3.603479,0.000000,-1.321556,0.000000,1.629229
LINE80,0.000000,4.372420,0.000000,3.930647,0.000000,3.870640
LINE81,0.000000,4.054708,0.000000,3.592730,0.000000,1.548332
LINE82,2.784944,-0.843319,2.784944,3.345472,2.784944,1.251076
LINE83,61.604418,-0.842230,61.604418,3.346560,61.604418,1.252165
LINE84,0.000000,3.179186,0.000000,-0.304057,0.000000,1.578475
LINE85,0.000000,4.321877,0.000000,3.927046,0.000000,3.849813
LINE86,0.000000,4.168311,0.000000,3.580308,0.000000,1.549470
LINE87,61.604418,-0.842230,61.604418,3.346560,61.604418,1.252165
LINE88,0.000000,-0.201631,0.000000,2.999591,0.000000,-0.247734
LINE89,0.000000,4.316370,0.000000,3.900725,0.000000,3.857367
LINE90,0.000000,4.409157,0.000000,3.791402,0.000000,1.532844
LINE91,61.604418,-0.842230,61.604418,3.346560,61.604418,1.252165
LINE92,0.000000,4.403718,0.000000,3.978598,0.000000,3.941109
LINE93,0.000000,4.687457,0.000000,3.580308,0.000000,-1.556686
LINE94,61.604418,-0.842230,61.604418,3.346560,61.604418,1.252165
LINE95,0.000000,4.544113,0.000000,3.768051,0.000000,4.088638
LINE96,0.000000,0.438716,0.000000,0.220047,0.000000,-0.024932
LINE97,61.604418,-0.842230,61.604418,3.346560,61.604418,1.252165
LINE98,0.000000,3.457310,0.000000,3.457310,0.000000,3.544201
LINE99,0.000000,1.545864,0.000000,1.545864,0.000000,3.116661
LINE100,61.604418,-0.842230,61.604418,3.346560,61.604418,1.252165
LINE101,0.000000,-0.243828,0.000000,3.684084,0.000000,2.499789
LINE102,0.000000,0.000000,0.000000,0.000000,0.000000,-0.024932
LINE103,5.015945,-0.842737,5.015945,3.346054,5.015945,1.251658
LINE104,56.588473,-0.842186,56.588473,3.346605,56.588473,1.252209
LINE105,0.000000,0.027795,0.000000,3.842293,0.000000,3.315232
LINE106,5.015945,-0.842737,5.015945,3.346054,5.015945,1.251658
LINE107,56.588473,-0.842186,56.588473,3.346605,56.588473,1.252209
LINE108,0.000000,2.166416,0.000000,4.374565,0.000000,3.019958
LINE109,5.015945,-0.842737,5.015945,3.346054,5.015945,1.251658
LINE110,56.588473,-0.842186,56.588473,3.346605,56.588473,1.252209
LINE111,0.000000,2.137154,0.000000,4.644368,0.000000,3.348323
LINE112,5.015945,-0.842737,5.015945,3.346054,5.015945,1.251658
LINE113,56.588473,-0.842186,56.588473,3.346605,56.588473,1.252209
LINE114,0.000000,2.159384,0.000000,4.653032,0.000000,3.378348
LINE115,5.015945,-0.842737,5.015945,3.346054,5.015945,1.251658
LINE116,0.544051,-0.842624,0.544051,3.346167,0.544051,1.251772
LINE117,56.044422,-0.842181,56.044422,3.346609,56.044422,1.252214
LINE118,0.000000,2.445812,0.000000,4.559705,0.000000,3.332974
LINE119,5.015945,-0.842737,5.015945,3.346054,5.015945,1.251658
LINE120,0.000000,3.580308,0.000000,0.379960,0.000000,-1.549537
LINE121,0.544051,-0.842624,0.544051,3.346167,0.544051,1.251772
LINE122,56.044422,-0.842181,56.044422,3.346609,56.044422,1.252214
LINE123,0.000000,2.144260,0.000000,4.494282,0.000000,3.192243
LINE124,5.015945,-0.842737,5.015945,3.346054,5.015945,1.251658
LINE125,0.000000,3.580308,0.000000,0.563071,0.000000,4.709264
LINE126,0.544051,-0.842624,0.544051,3.346167,0.544051,1.251772
LINE127,56.044422,-0.842181,56.044422,3.346609,56.044422,1.252214
LINE128,0.000000,1.449661,0.000000,4.297663,0.000000,3.438651
LINE129,5.015945,-0.842737,5.015945,3.346054,5.015945,1.251658
LINE130,0.000000,3.314056,0.000000,0.515488,0.000000,-1.556036
LINE131,0.064526,-0.842625,0.064526,3.346165,0.064526,1.251770
LINE132,0.479525,-0.842623,0.479525,3.346167,0.479525,1.251772
LINE133,56.044422,-0.842181,56.044422,3.346609,56.044422,1.252214
LINE134,0.000000,1.000129,0.000000,4.253360,0.000000,3.375901
LINE135,5.015945,-0.842737,5.015945,3.346054,5.015945,1.251658
LINE136,0.000000,3.314056,0.000000,0.220047,0.000000,-1.461770
LINE137,0.064526,-0.842625,0.064526,3.346165,0.064526,1.251770
LINE138,0.479525,-0.842623,0.479525,3.346167,0.479525,1.251772
LINE139,56.044422,-0.842181,56.044422,3.346609,56.044422,1.252214
LINE140,0.000000,0.843010,0.000000,4.143174,0.000000,3.297209
LINE141,5.015945,-0.842737,5.015945,3.346054,5.015945,1.251658
LINE142,0.000000,3.179080,0.000000,0.355574,0.000000,-1.562537
LINE143,0.064526,-0.842625,0.064526,3.346165,0.064526,1.251770
LINE144,0.479525,-0.842623,0.479525,3.346167,0.479525,1.251772
LINE145,56.044422,-0.842181,56.044422,3.346609,56.044422,1.252214
LINE146,0.000000,0.724510,0.000000,3.534736,0.000000,3.836466
LINE147,5.015945,-0.842737,5.015945,3.346054,5.015945,1.251658
LINE148,0.000000,3.314056,0.000000,0.253368,0.000000,4.699175
LINE149,0.064526,-0.842625,0.064526,3.346165,0.064526,1.251770
LINE150,0.366921,-0.842623,0.366921,3.346167,0.366921,1.251772
LINE151,0.112605,-0.842625,0.112605,3.346165,0.112605,1.251770
LINE152,56.044422,-0.842181,56.044422,3.346609,56.044422,1.252214
LINE153,0.000000,4.596626,0.000000,3.076811,0.000000,4.170338
LINE154,5.015945,-0.842737,5.015945,3.346054,5.015945,1.251658
LINE155,0.000000,3.580308,0.000000,0.046376,0.000000,1.578080
LINE156,0.064526,-0.842625,0.064526,3.346165,0.064526,1.251770
LINE157,0.366921,-0.842623,0.366921,3.346167,0.366921,1.251772
LINE158,0.112605,-0.842625,0.112605,3.346165,0.112605,1.251770
LINE159,56.044422,-0.842181,56.044422,3.346609,56.044422,1.252214
LINE160,0.000000,2.909692,0.000000,3.677127,0.000000,2.512504
LINE161,0.265472,-0.842774,0.265472,3.346017,0.265472,1.251621
LINE162,4.750474,-0.842735,4.750474,3.346056,4.750474,1.251660
LINE163,0.000000,3.497167,0.000000,0.116965,0.000000,1.524383
LINE164,0.064526,-0.842625,0.064526,3.346165,0.064526,1.251770
LINE165,0.366921,-0.842623,0.366921,3.346167,0.366921,1.251772
LINE166,0.112605,-0.842625,0.112605,3.346165,0.112605,1.251770
LINE167,56.044422,-0.842181,56.044422,3.346609,56.044422,1.252214
LINE168,0.000000,0.370500,0.000000,0.370500,0.000000,1.868106
LINE169,0.265472,-0.842774,0.265472,3.346017,0.265472,1.251621
LINE170,4.750474,-0.842735,4.750474,3.346056,4.750474,1.251660
LINE171,0.000000,3.314056,0.000000,0.074737,0.000000,-1.555711
LINE172,0.064526,-0.842625,0.064526,3.346165,0.064526,1.251770
LINE173,0.000000,4.591416,0.000000,3.451475,0.000000,-0.532429
LINE174,0.366921,-0.842623,0.366921,3.346167,0.366921,1.251772
LINE175,0.112605,-0.842625,0.112605,3.346165,0.112605,1.251770
LINE176,56.044422,-0.842181,56.044422,3.346609,56.044422,1.252214
LINE177,0.265472,-0.842774,0.265472,3.346017,0.265472,1.251621
LINE178,1.225037,-0.842778,1.225037,3.346012,1.225037,1.251617
LINE179,3.525437,-0.842720,3.525437,3.346071,3.525437,1.251676
LINE180,0.000000,3.408118,0.000000,0.099423,0.000000,-1.563513
LINE181,0.064526,-0.842625,0.064526,3.346165,0.064526,1.251770
LINE182,0.000000,4.635420,0.000000,3.366477,0.000000,-0.560125
LINE183,0.366921,-0.842623,0.366921,3.346167,0.366921,1.251772
LINE184,0.112605,-0.842625,0.112605,3.346165,0.112605,1.251770
LINE185,56.044422,-0.842181,56.044422,3.346609,56.044422,1.252214
LINE186,1.225037,-0.842778,1.225037,3.346012,1.225037,1.251617
LINE187,3.525437,-0.842720,3.525437,3.346071,3.525437,1.251676
LINE188,0.000000,3.314056,0.000000,0.618569,0.000000,4.706986
LINE189,0.064526,-0.842625,0.064526,3.346165,0.064526,1.251770
LINE190,0.000000,2.151499,0.000000,0.504376,0.000000,4.518954
LINE191,0.000000,-1.458110,0.000000,3.390647,0.000000,-0.609797
LINE192,0.366921,-0.842623,0.366921,3.346167,0.366921,1.251772
LINE193,0.112605,-0.842625,0.112605,3.346165,0.112605,1.251770
LINE194,56.044422,-0.842181,56.044422,3.346609,56.044422,1.252214
LINE195,1.225037,-0.842778,1.225037,3.346012,1.225037,1.251617
LINE196,2.947592,-0.842717,2.947592,3.346074,2.947592,1.251678
LINE197,0.577844,-0.842734,0.577844,3.346056,0.577844,1.251661
LINE198,0.000000,3.361639,0.000000,0.760466,0.000000,3.116661
LINE199,0.064526,-0.842625,0.064526,3.346165,0.064526,1.251770
LINE200,0.000000,-1.141125,0.000000,0.743922,0.000000,0.300787
LINE201,0.000000,-1.502443,0.000000,3.620759,0.000000,0.196348
LINE202,0.366921,-0.842623,0.366921,3.346167,0.366921,1.251772
LINE203,0.112605,-0.842625,0.112605,3.346165,0.112605,1.251770
LINE204,56.044422,-0.842181,56.044422,3.346609,56.044422,1.252214
LINE205,0.644758,-0.842777,0.644758,3.346013,0.644758,1.251618
LINE206,0.580279,-0.842779,0.580279,3.346011,0.580279,1.251616
LINE207,2.947592,-0.842717,2.947592,3.346074,2.947592,1.251678
LINE208,0.577844,-0.842734,0.577844,3.346056,0.577844,1.251661
LINE209,0.000000,2.951512,0.000000,1.545864,0.000000,1.512673
LINE210,0.064526,-0.842625,0.064526,3.346165,0.064526,1.251770
LINE211,0.000000,-1.444776,0.000000,2.165211,0.000000,-1.110302
LINE212,0.366921,-0.842623,0.366921,3.346167,0.366921,1.251772
LINE213,0.112605,-0.842625,0.112605,3.346165,0.112605,1.251770
LINE214,56.044422,-0.842181,56.044422,3.346609,56.044422,1.252214
LINE215,0.644758,-0.842777,0.644758,3.346013,0.644758,1.251618
LINE216,0.580279,-0.842779,0.580279,3.346011,0.580279,1.251616
LINE217,0.577844,-0.842734,0.577844,3.346056,0.577844,1.251661
LINE218,0.000000,0.000000,0.000000,0.000000,0.000000,-0.024932
LINE219,0.064526,-0.842625,0.064526,3.346165,0.064526,1.251770
LINE220,0.000000,-1.542635,0.000000,2.953275,0.000000,2.263306
LINE221,0.366921,-0.842623,0.366921,3.346167,0.366921,1.251772
LINE222,0.112605,-0.842625,0.112605,3.346165,0.112605,1.251770
LINE223,56.044422,-0.842181,56.044422,3.346609,56.044422,1.252214
LINE224,0.644758,-0.842777,0.644758,3.346013,0.644758,1.251618
LINE225,0.580279,-0.842779,0.580279,3.346011,0.580279,1.251616
LINE226,0.577844,-0.842734,0.577844,3.346056,0.577844,1.251661
LINE227,0.064526,-0.842625,0.064526,3.346165,0.064526,1.251770
LINE228,0.000000,-1.444667,0.000000,2.582703,0.000000,2.410082
LINE229,0.366921,-0.842623,0.366921,3.346167,0.366921,1.251772
LINE230,0.112605,-0.842625,0.112605,3.346165,0.112605,1.251770
LINE231,56.044422,-0.842181,56.044422,3.346609,56.044422,1.252214
LINE232,0.580279,-0.842779,0.580279,3.346011,0.580279,1.251616
LINE233,0.000000,1.335598,0.000000,-0.202040,0.000000,4.611244
LINE234,0.577844,-0.842734,0.577844,3.346056,0.577844,1.251661
LINE235,0.064526,-0.842625,0.064526,3.346165,0.064526,1.251770
LINE236,0.000000,-1.436584,0.000000,2.849454,0.000000,1.201835
LINE237,0.366921,-0.842623,0.366921,3.346167,0.366921,1.251772
LINE238,0.112605,-0.842625,0.112605,3.346165,0.112605,1.251770
LINE239,56.044422,-0.842181,56.044422,3.346609,56.044422,1.252214
LINE240,0.580279,-0.842779,0.580279,3.346011,0.580279,1.251616
LINE241,0.577844,-0.842734,0.577844,3.346056,0.577844,1.251661
LINE242,0.064526,-0.842625,0.064526,3.346165,0.064526,1.251770
LINE243,0.000000,-1.423268,0.000000,3.045449,0.000000,0.838840
LINE244,0.366921,-0.842623,0.366921,3.346167,0.366921,1.251772
LINE245,0.112605,-0.842625,0.112605,3.346165,0.112605,1.251770
LINE246,56.044422,-0.842181,56.044422,3.346609,56.044422,1.252214
LINE247,0.060682,-0.842782,0.060682,3.346009,0.060682,1.251613
LINE248,0.519597,-0.842779,0.519597,3.346011,0.519597,1.251616
LINE249,0.577844,-0.842734,0.577844,3.346056,0.577844,1.251661
LINE250,0.064526,-0.842625,0.064526,3.346165,0.064526,1.251770
LINE251,0.000000,4.694405,0.000000,2.896548,0.000000,-0.256587
LINE252,0.366921,-0.842623,0.366921,3.346167,0.366921,1.251772
LINE253,0.112605,-0.842625,0.112605,3.346165,0.112605,1.251770
LINE254,0.196462,-0.842521,0.196462,3.346270,0.196462,1.251875
LINE255,55.847960,-0.842180,55.847960,3.346610,55.847960,1.252215
LINE256,0.577844,-0.842734,0.577844,3.346056,0.577844,1.251661
LINE257,0.064526,-0.842625,0.064526,3.346165,0.064526,1.251770
LINE258,0.000000,4.490090,0.000000,3.803447,0.000000,2.598383
LINE259,0.366921,-0.842623,0.366921,3.346167,0.366921,1.251772
LINE260,0.112605,-0.842625,0.112605,3.346165,0.112605,1.251770
LINE261,0.196462,-0.842521,0.196462,3.346270,0.196462,1.251875
LINE262,55.847960,-0.842180,55.847960,3.346610,55.847960,1.252215
LINE263,0.577844,-0.842734,0.577844,3.346056,0.577844,1.251661
LINE264,0.064526,-0.842625,0.064526,3.346165,0.064526,1.251770
LINE265,0.000000,-1.205251,0.000000,3.570502,0.000000,1.587360
LINE266,0.366921,-0.842623,0.366921,3.346167,0.366921,1.251772
LINE267,0.055670,-0.842625,0.055670,3.346165,0.055670,1.251770
LINE268,0.056935,-0.842625,0.056935,3.346165,0.056935,1.251770
LINE269,0.196462,-0.842521,0.196462,3.346270,0.196462,1.251875
LINE270,0.296673,-0.842504,0.296673,3.346286,0.296673,1.251891
LINE271,55.551288,-0.842178,55.551288,3.346612,55.551288,1.252217
LINE272,0.064526,-0.842625,0.064526,3.346165,0.064526,1.251770
LINE273,0.000000,-0.718425,0.000000,-0.424358,0.000000,2.235932
LINE274,0.366921,-0.842623,0.366921,3.346167,0.366921,1.251772
LINE275,0.055670,-0.842625,0.055670,3.346165,0.055670,1.251770
LINE276,0.056935,-0.842625,0.056935,3.346165,0.056935,1.251770
LINE277,0.196462,-0.842521,0.196462,3.346270,0.196462,1.251875
LINE278,0.296673,-0.842504,0.296673,3.346286,0.296673,1.251891
LINE279,55.551288,-0.842178,55.551288,3.346612,55.551288,1.252217
LINE280,0.064526,-0.842625,0.064526,3.346165,0.064526,1.251770
LINE281,0.000000,0.637096,0.000000,4.510177,0.000000,2.733687
LINE282,0.366921,-0.842623,0.366921,3.346167,0.366921,1.251772
LINE283,0.056935,-0.842625,0.056935,3.346165,0.056935,1.251770
LINE284,0.196462,-0.842521,0.196462,3.346270,0.196462,1.251875
LINE285,0.296673,-0.842504,0.296673,3.346286,0.296673,1.251891
LINE286,38.419810,-0.842095,38.419810,3.346695,38.419810,1.252300
LINE287,17.131478,-0.842365,17.131478,3.346425,17.131478,1.252030
LINE288,0.064526,-0.842625,0.064526,3.346165,0.064526,1.251770
LINE289,0.000000,-1.373499,0.000000,2.543774,0.000000,3.321295
LINE290,0.068323,-0.842623,0.068323,3.346167,0.068323,1.251772
LINE291,0.298598,-0.842623,0.298598,3.346168,0.298598,1.251772
LINE292,0.056935,-0.842625,0.056935,3.346165,0.056935,1.251770
LINE293,0.196462,-0.842521,0.196462,3.346270,0.196462,1.251875
LINE294,0.296673,-0.842504,0.296673,3.346286,0.296673,1.251891
LINE295,38.419810,-0.842095,38.419810,3.346695,38.419810,1.252300
LINE296,17.131478,-0.842365,17.131478,3.346425,17.131478,1.252030
LINE297,0.068323,-0.842623,0.068323,3.346167,0.068323,1.251772
LINE298,0.298598,-0.842623,0.298598,3.346168,0.298598,1.251772
LINE299,0.056935,-0.842625,0.056935,3.346165,0.056935,1.251770
LINE300,0.196462,-0.842521,0.196462,3.346270,0.196462,1.251875
LINE301,0.296673,-0.842504,0.296673,3.346286,0.296673,1.251891
LINE302,38.419810,-0.842095,38.419810,3.346695,38.419810,1.252300
LINE303,17.131478,-0.842365,17.131478,3.346425,17.131478,1.252030
LINE304,0.068323,-0.842623,0.068323,3.346167,0.068323,1.251772
LINE305,0.298598,-0.842623,0.298598,3.346168,0.298598,1.251772
LINE306,0.056935,-0.842625,0.056935,3.346165,0.056935,1.251770
LINE307,0.196462,-0.842521,0.196462,3.346270,0.196462,1.251875
LINE308,0.296673,-0.842504,0.296673,3.346286,0.296673,1.251891
LINE309,38.419810,-0.842095,38.419810,3.346695,38.419810,1.252300
LINE310,17.131478,-0.842365,17.131478,3.346425,17.131478,1.252030
LINE311,0.068323,-0.842623,0.068323,3.346167,0.068323,1.251772
LINE312,0.298598,-0.842623,0.298598,3.346168,0.298598,1.251772
LINE313,0.056935,-0.842625,0.056935,3.346165,0.056935,1.251770
LINE314,0.196462,-0.842521,0.196462,3.346270,0.196462,1.251875
LINE315,0.296673,-0.842504,0.296673,3.346286,0.296673,1.251891
LINE316,16.114361,-0.842166,16.114361,3.346624,16.114361,1.252229
LINE317,22.305449,-0.842044,22.305449,3.346746,22.305449,1.252351
LINE318,17.131478,-0.842365,17.131478,3.346425,17.131478,1.252030
LINE319,0.068323,-0.842623,0.068323,3.346167,0.068323,1.251772
LINE320,0.298598,-0.842623,0.298598,3.346168,0.298598,1.251772
LINE321,0.196462,-0.842521,0.196462,3.346270,0.196462,1.251875
LINE322,0.296673,-0.842504,0.296673,3.346286,0.296673,1.251891
LINE323,16.114361,-0.842166,16.114361,3.346624,16.114361,1.252229
LINE324,22.305449,-0.842044,22.305449,3.346746,22.305449,1.252351
LINE325,17.131478,-0.842365,17.131478,3.346425,17.131478,1.252030
LINE326,0.298598,-0.842623,0.298598,3.346168,0.298598,1.251772
LINE327,0.196462,-0.842521,0.196462,3.346270,0.196462,1.251875
LINE328,0.296673,-0.842504,0.296673,3.346286,0.296673,1.251891
LINE329,16.114361,-0.842166,16.114361,3.346624,16.114361,1.252229
LINE330,0.095215,-0.842323,0.095215,3.346468,0.095215,1.252073
LINE331,22.210233,-0.842043,22.210233,3.346747,22.210233,1.252352
LINE332,17.131478,-0.842365,17.131478,3.346425,17.131478,1.252030
LINE333,0.196462,-0.842521,0.196462,3.346270,0.196462,1.251875
LINE334,0.296673,-0.842504,0.296673,3.346286,0.296673,1.251891
LINE335,16.114361,-0.842166,16.114361,3.346624,16.114361,1.252229
LINE336,0.095215,-0.842323,0.095215,3.346468,0.095215,1.252073
LINE337,13.309575,-0.842046,13.309575,3.346744,13.309575,1.252349
LINE338,8.900658,-0.842037,8.900658,3.346753,8.900658,1.252358
LINE339,17.131478,-0.842365,17.131478,3.346425,17.131478,1.252030
LINE340,0.196462,-0.842521,0.196462,3.346270,0.196462,1.251875
LINE341,0.296673,-0.842504,0.296673,3.346286,0.296673,1.251891
LINE342,16.078811,-0.842166,16.078811,3.346624,16.078811,1.252229
LINE343,0.035551,-0.842258,0.035551,3.346532,0.035551,1.252137
LINE344,13.309575,-0.842046,13.309575,3.346744,13.309575,1.252349
LINE345,8.900658,-0.842037,8.900658,3.346753,8.900658,1.252358
LINE346,17.131478,-0.842365,17.131478,3.346425,17.131478,1.252030
LINE347,0.196462,-0.842521,0.196462,3.346270,0.196462,1.251875
LINE348,16.078811,-0.842166,16.078811,3.346624,16.078811,1.252229
LINE349,0.035551,-0.842258,0.035551,3.346532,0.035551,1.252137
LINE350,13.309575,-0.842046,13.309575,3.346744,13.309575,1.252349
LINE351,8.900658,-0.842037,8.900658,3.346753,8.900658,1.252358
LINE352,17.131478,-0.842365,17.131478,3.346425,17.131478,1.252030
LINE353,0.196462,-0.842521,0.196462,3.346270,0.196462,1.251875
LINE354,0.035551,-0.842258,0.035551,3.346532,0.035551,1.252137
LINE355,13.309575,-0.842046,13.309575,3.346744,13.309575,1.252349
LINE356,8.900658,-0.842037,8.900658,3.346753,8.900658,1.252358
LINE357,17.131478,-0.842365,17.131478,3.346425,17.131478,1.252030
LINE358,0.196462,-0.842521,0.196462,3.346270,0.196462,1.251875
LINE359,0.035551,-0.842258,0.035551,3.346532,0.035551,1.252137
LINE360,13.309575,-0.842046,13.309575,3.346744,13.309575,1.252349
LINE361,8.900658,-0.842037,8.900658,3.346753,8.900658,1.252358
LINE362,17.131478,-0.842365,17.131478,3.346425,17.131478,1.252030
LINE363,0.196462,-0.842521,0.196462,3.346270,0.196462,1.251875
LINE364,0.035551,-0.842258,0.035551,3.346532,0.035551,1.252137
LINE365,13.309575,-0.842046,13.309575,3.346744,13.309575,1.252349
LINE366,8.900658,-0.842037,8.900658,3.346753,8.900658,1.252358
LINE367,17.131478,-0.842365,17.131478,3.346425,17.131478,1.252030
LINE368,0.196462,-0.842521,0.196462,3.346270,0.196462,1.251875
LINE369,0.035551,-0.842258,0.035551,3.346532,0.035551,1.252137
LINE370,13.309575,-0.842046,13.309575,3.346744,13.309575,1.252349
LINE371,8.900658,-0.842037,8.900658,3.346753,8.900658,1.252358
LINE372,17.131478,-0.842365,17.131478,3.346425,17.131478,1.252030
LINE373,0.196462,-0.842521,0.196462,3.346270,0.196462,1.251875
LINE374,0.035551,-0.842258,0.035551,3.346532,0.035551,1.252137
LINE375,13.309575,-0.842046,13.309575,3.346744,13.309575,1.252349
LINE376,8.900658,-0.842037,8.900658,3.346753,8.900658,1.252358
LINE377,16.986880,-0.842364,16.986880,3.346426,16.986880,1.252031
LINE378,0.144598,-0.842480,0.144598,3.346311,0.144598,1.251916
LINE379,0.196462,-0.842521,0.196462,3.346270,0.196462,1.251875
LINE380,0.035551,-0.842258,0.035551,3.346532,0.035551,1.252137
LINE381,13.309575,-0.842046,13.309575,3.346744,13.309575,1.252349
LINE382,8.900658,-0.842037,8.900658,3.346753,8.900658,1.252358
LINE383,16.986880,-0.842364,16.986880,3.346426,16.986880,1.252031
LINE384,0.144598,-0.842480,0.144598,3.346311,0.144598,1.251916
LINE385,0.000000,2.592570,0.000000,0.803118,0.000000,2.032293
LINE386,0.196462,-0.842521,0.196462,3.346270,0.196462,1.251875
LINE387,0.035551,-0.842258,0.035551,3.346532,0.035551,1.252137
LINE388,13.309575,-0.842046,13.309575,3.346744,13.309575,1.252349
LINE389,8.900658,-0.842037,8.900658,3.346753,8.900658,1.252358
LINE390,16.986880,-0.842364,16.986880,3.346426,16.986880,1.252031
LINE391,0.144598,-0.842480,0.144598,3.346311,0.144598,1.251916
LINE392,0.000000,2.579840,0.000000,0.798262,0.000000,2.023762
LINE393,13.309575,-0.842046,13.309575,3.346744,13.309575,1.252349
LINE394,8.900658,-0.842037,8.900658,3.346753,8.900658,1.252358
LINE395,1.153213,-0.842457,1.153213,3.346334,1.153213,1.251939
LINE396,15.833668,-0.842357,15.833668,3.346433,15.833668,1.252038
LINE397,0.144598,-0.842480,0.144598,3.346311,0.144598,1.251916
LINE398,0.000000,2.627506,0.000000,0.797292,0.000000,1.872301
LINE399,13.309575,-0.842046,13.309575,3.346744,13.309575,1.252349
LINE400,8.900658,-0.842037,8.900658,3.346753,8.900658,1.252358
LINE401,1.153213,-0.842457,1.153213,3.346334,1.153213,1.251939
LINE402,15.833668,-0.842357,15.833668,3.346433,15.833668,1.252038
LINE403,0.144598,-0.842480,0.144598,3.346311,0.144598,1.251916
LINE404,0.000000,2.610064,0.000000,0.963320,0.000000,1.700036
LINE405,13.309575,-0.842046,13.309575,3.346744,13.309575,1.252349
LINE406,8.900658,-0.842037,8.900658,3.346753,8.900658,1.252358
LINE407,1.153213,-0.842457,1.153213,3.346334,1.153213,1.251939
LINE408,15.833668,-0.842357,15.833668,3.346433,15.833668,1.252038
LINE409,0.000000,-1.002494,0.000000,3.839784,0.000000,1.191817
LINE410,0.144598,-0.842480,0.144598,3.346311,0.144598,1.251916
LINE411,0.000000,2.780479,0.000000,-0.126233,0.000000,1.591204
LINE412,8.900658,-0.842037,8.900658,3.346753,8.900658,1.252358
LINE413,1.153213,-0.842457,1.153213,3.346334,1.153213,1.251939
LINE414,15.833668,-0.842357,15.833668,3.346433,15.833668,1.252038
LINE415,0.000000,-0.903582,0.000000,3.836867,0.000000,1.081877
LINE416,0.144598,-0.842480,0.144598,3.346311,0.144598,1.251916
LINE417,0.000000,2.387189,0.000000,-0.268444,0.000000,1.595461
LINE418,8.900658,-0.842037,8.900658,3.346753,8.900658,1.252358
LINE419,1.153213,-0.842457,1.153213,3.346334,1.153213,1.251939
LINE420,15.833668,-0.842357,15.833668,3.346433,15.833668,1.252038
LINE421,0.000000,-1.072723,0.000000,3.878283,0.000000,0.935961
LINE422,0.144598,-0.842480,0.144598,3.346311,0.144598,1.251916
LINE423,0.000000,2.525330,0.000000,-0.438362,0.000000,1.569481
LINE424,8.900658,-0.842037,8.900658,3.346753,8.900658,1.252358
LINE425,0.000000,3.398916,0.000000,0.319837,0.000000,3.417593
LINE426,1.153213,-0.842457,1.153213,3.346334,1.153213,1.251939
LINE427,15.833668,-0.842357,15.833668,3.346433,15.833668,1.252038
LINE428,0.000000,-0.895016,0.000000,3.905154,0.000000,-0.127818
LINE429,0.144598,-0.842480,0.144598,3.346311,0.144598,1.251916
LINE430,0.000000,2.521450,0.000000,-0.443357,0.000000,1.569059
LINE431,8.900658,-0.842037,8.900658,3.346753,8.900658,1.252358
LINE432,0.000000,0.941977,0.000000,3.840919,0.000000,4.103212
LINE433,1.153213,-0.842457,1.153213,3.346334,1.153213,1.251939
LINE434,15.833668,-0.842357,15.833668,3.346433,15.833668,1.252038
LINE435,0.000000,-0.872026,0.000000,3.882667,0.000000,-0.566933
LINE436,0.144598,-0.842480,0.144598,3.346311,0.144598,1.251916
LINE437,0.000000,2.474278,0.000000,-0.129722,0.000000,1.565003
LINE438,8.900658,-0.842037,8.900658,3.346753,8.900658,1.252358
LINE439,0.000000,-0.228165,0.000000,3.178208,0.000000,4.578959
LINE440,1.153213,-0.842457,1.153213,3.346334,1.153213,1.251939
LINE441,15.833668,-0.842357,15.833668,3.346433,15.833668,1.252038
LINE442,0.000000,-0.658384,0.000000,3.907241,0.000000,0.749288
LINE443,0.144598,-0.842480,0.144598,3.346311,0.144598,1.251916
LINE444,0.000000,2.442225,0.000000,-0.132009,0.000000,1.586404
LINE445,8.900658,-0.842037,8.900658,3.346753,8.900658,1.252358
LINE446,0.000000,-1.553394,0.000000,1.004551,0.000000,1.809536
LINE447,1.153213,-0.842457,1.153213,3.346334,1.153213,1.251939
LINE448,15.833668,-0.842357,15.833668,3.346433,15.833668,1.252038
LINE449,0.000000,-0.601896,0.000000,4.031737,0.000000,-1.513779
LINE450,0.144598,-0.842480,0.144598,3.346311,0.144598,1.251916
LINE451,0.000000,2.304127,0.000000,0.064029,0.000000,1.574328
LINE452,8.900658,-0.842037,8.900658,3.346753,8.900658,1.252358
LINE453,0.000000,-0.140280,0.000000,2.939912,0.000000,2.498096
LINE454,1.153213,-0.842457,1.153213,3.346334,1.153213,1.251939
LINE455,15.833668,-0.842357,15.833668,3.346433,15.833668,1.252038
LINE456,0.000000,-0.757410,0.000000,4.093300,0.000000,4.660708
LINE457,0.144598,-0.842480,0.144598,3.346311,0.144598,1.251916
LINE458,0.000000,2.409232,0.000000,0.086618,0.000000,1.573718
LINE459,8.839665,-0.842036,8.839665,3.346754,8.839665,1.252359
LINE460,0.000000,0.002486,0.000000,3.621098,0.000000,4.014574
LINE461,0.060993,-0.842177,0.060993,3.346613,0.060993,1.252218
LINE462,1.153213,-0.842457,1.153213,3.346334,1.153213,1.251939
LINE463,15.833668,-0.842357,15.833668,3.346433,15.833668,1.252038
LINE464,0.000000,-0.996621,0.000000,4.078753,0.000000,0.533998
LINE465,0.000000,2.522607,0.000000,0.159342,0.000000,1.578141
LINE466,8.839665,-0.842036,8.839665,3.346754,8.839665,1.252359
LINE467,0.000000,-1.358455,0.000000,2.753051,0.000000,-1.562233
LINE468,0.000000,-1.444387,0.000000,-1.444387,0.000000,2.162229
LINE469,0.060993,-0.842177,0.060993,3.346613,0.060993,1.252218
LINE470,1.153213,-0.842457,1.153213,3.346334,1.153213,1.251939
LINE471,15.833668,-0.842357,15.833668,3.346433,15.833668,1.252038
LINE472,0.000000,-1.058398,0.000000,4.464839,0.000000,4.492024
LINE473,0.000000,2.367072,0.000000,0.255892,0.000000,1.573277
LINE474,8.839665,-0.842036,8.839665,3.346754,8.839665,1.252359
LINE475,0.000000,-0.098106,0.000000,3.559008,0.000000,-1.411615
LINE476,0.060993,-0.842177,0.060993,3.346613,0.060993,1.252218
LINE477,1.153213,-0.842457,1.153213,3.346334,1.153213,1.251939
LINE478,15.833668,-0.842357,15.833668,3.346433,15.833668,1.252038
LINE479,0.000000,-1.111501,0.000000,4.571231,0.000000,2.023788
LINE480,0.000000,2.102053,0.000000,1.482978,0.000000,1.548225
LINE481,1.689335,-0.842119,1.689335,3.346671,1.689335,1.252276
LINE482,0.000000,0.748909,0.000000,-1.075621,0.000000,-1.543668
LINE483,7.150330,-0.842017,7.150330,3.346773,7.150330,1.252378
LINE484,0.060993,-0.842177,0.060993,3.346613,0.060993,1.252218
LINE485,1.153213,-0.842457,1.153213,3.346334,1.153213,1.251939
LINE486,15.833668,-0.842357,15.833668,3.346433,15.833668,1.252038
LINE487,0.000000,-1.148797,0.000000,-1.489167,0.000000,2.275913
LINE488,0.000000,0.378263,0.000000,-0.572725,0.000000,1.516269
LINE489,1.689335,-0.842119,1.689335,3.346671,1.689335,1.252276
LINE490,0.000000,1.639875,0.000000,3.682633,0.000000,0.947624
LINE491,7.082946,-0.842017,7.082946,3.346774,7.082946,1.252379
LINE492,0.067384,-0.842060,0.067384,3.346731,0.067384,1.252335
LINE493,0.060993,-0.842177,0.060993,3.346613,0.060993,1.252218
LINE494,1.153213,-0.842457,1.153213,3.346334,1.153213,1.251939
LINE495,15.833668,-0.842357,15.833668,3.346433,15.833668,1.252038
LINE496,0.000000,-1.022739,0.000000,-1.022739,0.000000,2.941823
LINE497,0.000000,1.500045,0.000000,4.245758,0.000000,-0.118143
LINE498,1.689335,-0.842119,1.689335,3.346671,1.689335,1.252276
LINE499,0.000000,2.916611,0.000000,0.178538,0.000000,1.131027
LINE500,7.082946,-0.842017,7.082946,3.346774,7.082946,1.252379
LINE501,0.067384,-0.842060,0.067384,3.346731,0.067384,1.252335
LINE502,0.060993,-0.842177,0.060993,3.346613,0.060993,1.252218
LINE503,1.153213,-0.842457,1.153213,3.346334,1.153213,1.251939
LINE504,15.833668,-0.842357,15.833668,3.346433,15.833668,1.252038
LINE505,0.000000,-1.374992,0.000000,-1.100104,0.000000,2.754616
LINE506,0.000000,0.000000,0.000000,0.000000,0.000000,0.000000
LINE507,1.689335,-0.842119,1.689335,3.346671,1.689335,1.252276
LINE508,0.000000,0.704311,0.000000,2.573032,0.000000,1.538712
LINE509,7.082946,-0.842017,7.082946,3.346774,7.082946,1.252379
LINE510,0.060993,-0.842177,0.060993,3.346613,0.060993,1.252218
LINE511,1.153213,-0.842457,1.153213,3.346334,1.153213,1.251939
LINE512,2.897907,-0.842414,2.897907,3.346376,2.897907,1.251981
LINE513,12.935761,-0.842345,12.935761,3.346445,12.935761,1.252050
LINE514,0.000000,4.259252,0.000000,-0.941380,0.000000,3.289725
LINE515,1.417327,-0.842117,1.417327,3.346673,1.417327,1.252278
LINE516,0.000000,1.349587,0.000000,4.572938,0.000000,1.433085
LINE517,0.272008,-0.842129,0.272008,3.346661,0.272008,1.252266
LINE518,7.082946,-0.842017,7.082946,3.346774,7.082946,1.252379
LINE519,0.060993,-0.842177,0.060993,3.346613,0.060993,1.252218
LINE520,1.153213,-0.842457,1.153213,3.346334,1.153213,1.251939
LINE521,2.897907,-0.842414,2.897907,3.346376,2.897907,1.251981
LINE522,12.935761,-0.842345,12.935761,3.346445,12.935761,1.252050
LINE523,0.000000,4.597176,0.000000,4.185564,0.000000,2.185217
LINE524,1.417327,-0.842117,1.417327,3.346673,1.417327,1.252278
LINE525,0.000000,1.534106,0.000000,4.445143,0.000000,-1.249441
LINE526,0.272008,-0.842129,0.272008,3.346661,0.272008,1.252266
LINE527,7.082946,-0.842017,7.082946,3.346774,7.082946,1.252379
LINE528,0.060993,-0.842177,0.060993,3.346613,0.060993,1.252218
LINE529,1.153213,-0.842457,1.153213,3.346334,1.153213,1.251939
LINE530,12.935761,-0.842345,12.935761,3.346445,12.935761,1.252050
LINE531,0.000000,-1.433792,0.000000,-1.348233,0.000000,2.060931
LINE532,1.417327,-0.842117,1.417327,3.346673,1.417327,1.252278
LINE533,0.000000,-0.201681,0.000000,3.006606,0.000000,3.079137
LINE534,0.272008,-0.842129,0.272008,3.346661,0.272008,1.252266
LINE535,7.082946,-0.842017,7.082946,3.346774,7.082946,1.252379
LINE536,0.060993,-0.842177,0.060993,3.346613,0.060993,1.252218
LINE537,0.384404,-0.842457,0.384404,3.346333,0.384404,1.251938
LINE538,0.768809,-0.842456,0.768809,3.346334,0.768809,1.251939
LINE539,12.935761,-0.842345,12.935761,3.346445,12.935761,1.252050
LINE540,0.000000,-1.372316,0.000000,4.295393,0.000000,1.808967
LINE541,1.417327,-0.842117,1.417327,3.346673,1.417327,1.252278
LINE542,0.000000,1.134265,0.000000,0.136959,0.000000,1.609225
LINE543,0.272008,-0.842129,0.272008,3.346661,0.272008,1.252266
LINE544,7.082946,-0.842017,7.082946,3.346774,7.082946,1.252379
LINE545,0.060993,-0.842177,0.060993,3.346613,0.060993,1.252218
LINE546,0.384404,-0.842457,0.384404,3.346333,0.384404,1.251938
LINE547,12.935761,-0.842345,12.935761,3.346445,12.935761,1.252050
LINE548,0.000000,4.192049,0.000000,-1.481708,0.000000,2.481589
LINE549,1.417327,-0.842117,1.417327,3.346673,1.417327,1.252278
LINE550,0.000000,-0.317921,0.000000,2.160772,0.000000,-0.643468
LINE551,0.198286,-0.842129,0.198286,3.346661,0.198286,1.252266
LINE552,0.073722,-0.842130,0.073722,3.346661,0.073722,1.252265
LINE553,7.082946,-0.842017,7.082946,3.346774,7.082946,1.252379
LINE554,0.060993,-0.842177,0.060993,3.346613,0.060993,1.252218
LINE555,0.384404,-0.842457,0.384404,3.346333,0.384404,1.251938
LINE556,12.935761,-0.842345,12.935761,3.346445,12.935761,1.252050
LINE557,0.000000,3.385441,0.000000,2.649880,0.000000,3.125633
LINE558,1.417327,-0.842117,1.417327,3.346673,1.417327,1.252278
LINE559,0.000000,-0.133763,0.000000,-0.154916,0.000000,4.163237
LINE560,0.198286,-0.842129,0.198286,3.346661,0.198286,1.252266
LINE561,0.073722,-0.842130,0.073722,3.346661,0.073722,1.252265
LINE562,7.082946,-0.842017,7.082946,3.346774,7.082946,1.252379
LINE563,0.060993,-0.842177,0.060993,3.346613,0.060993,1.252218
LINE564,12.935761,-0.842345,12.935761,3.346445,12.935761,1.252050
LINE565,0.000000,1.839793,0.000000,3.526448,0.000000,4.645964
LINE566,0.791921,-0.842118,0.791921,3.346672,0.791921,1.252277
LINE567,0.000000,0.852433,0.000000,2.683549,0.000000,-0.674153
LINE568,0.625406,-0.842115,0.625406,3.346675,0.625406,1.252280
LINE569,0.198286,-0.842129,0.198286,3.346661,0.198286,1.252266
LINE570,0.060993,-0.842177,0.060993,3.346613,0.060993,1.252218
LINE571,12.935761,-0.842345,12.935761,3.346445,12.935761,1.252050
LINE572,0.791921,-0.842118,0.791921,3.346672,0.791921,1.252277
LINE573,0.000000,-0.201681,0.000000,-0.201681,0.000000,2.996186
LINE574,0.625406,-0.842115,0.625406,3.346675,0.625406,1.252280
LINE575,0.198286,-0.842129,0.198286,3.346661,0.198286,1.252266
LINE576,0.060993,-0.842177,0.060993,3.346613,0.060993,1.252218
LINE577,12.935761,-0.842345,12.935761,3.346445,12.935761,1.252050
LINE578,0.791921,-0.842118,0.791921,3.346672,0.791921,1.252277
LINE579,0.000000,4.537153,0.000000,1.466463,0.000000,1.065322
LINE580,0.000000,0.832216,0.000000,3.113031,0.000000,1.961728
LINE581,0.625406,-0.842115,0.625406,3.346675,0.625406,1.252280
LINE582,0.198286,-0.842129,0.198286,3.346661,0.198286,1.252266
LINE583,0.060993,-0.842177,0.060993,3.346613,0.060993,1.252218
LINE584,2.717929,-0.842398,2.717929,3.346392,2.717929,1.251997
LINE585,10.217832,-0.842331,10.217832,3.346460,10.217832,1.252065
LINE586,0.791921,-0.842118,0.791921,3.346672,0.791921,1.252277
LINE587,0.000000,-0.347454,0.000000,0.521490,0.000000,3.227138
LINE588,0.000000,0.717384,0.000000,3.094894,0.000000,1.939681
LINE589,0.625406,-0.842115,0.625406,3.346675,0.625406,1.252280
LINE590,0.198286,-0.842129,0.198286,3.346661,0.198286,1.252266
LINE591,0.060993,-0.842177,0.060993,3.346613,0.060993,1.252218
LINE592,2.717929,-0.842398,2.717929,3.346392,2.717929,1.251997
LINE593,10.217832,-0.842331,10.217832,3.346460,10.217832,1.252065
LINE594,0.293633,-0.842119,0.293633,3.346671,0.293633,1.252276
LINE595,0.498288,-0.842118,0.498288,3.346672,0.498288,1.252277
LINE596,0.000000,0.698750,0.000000,3.141232,0.000000,1.999906
LINE597,0.625406,-0.842115,0.625406,3.346675,0.625406,1.252280
LINE598,0.198286,-0.842129,0.198286,3.346661,0.198286,1.252266
LINE599,0.060993,-0.842177,0.060993,3.346613,0.060993,1.252218
LINE600,2.717929,-0.842398,2.717929,3.346392,2.717929,1.251997
LINE601,1.349374,-0.842421,1.349374,3.346369,1.349374,1.251974
LINE602,8.868458,-0.842317,8.868458,3.346473,8.868458,1.252078
LINE603,0.293633,-0.842119,0.293633,3.346671,0.293633,1.252276
LINE604,0.000000,1.929857,0.000000,-0.761414,0.000000,2.703326
LINE605,0.000000,2.939912,0.000000,2.939912,0.000000,-0.145406
LINE606,0.498288,-0.842118,0.498288,3.346672,0.498288,1.252277
LINE607,0.000000,-0.149575,0.000000,-0.149575,0.000000,3.066247
LINE608,0.000000,1.012265,0.000000,3.430445,0.000000,2.875333
LINE609,0.625406,-0.842115,0.625406,3.346675,0.625406,1.252280
LINE610,0.198286,-0.842129,0.198286,3.346661,0.198286,1.252266
LINE611,0.060993,-0.842177,0.060993,3.346613,0.060993,1.252218
LINE612,2.717929,-0.842398,2.717929,3.346392,2.717929,1.251997
LINE613,1.349374,-0.842421,1.349374,3.346369,1.349374,1.251974
LINE614,8.868458,-0.842317,8.868458,3.346473,8.868458,1.252078
LINE615,0.293633,-0.842119,0.293633,3.346671,0.293633,1.252276
LINE616,0.000000,3.598643,0.000000,3.598643,0.000000,-0.916707
LINE617,0.000000,3.663173,0.000000,3.663173,0.000000,-0.944011
LINE618,0.498288,-0.842118,0.498288,3.346672,0.498288,1.252277
LINE619,0.000000,1.703924,0.000000,3.281117,0.000000,4.046439
LINE620,0.625406,-0.842115,0.625406,3.346675,0.625406,1.252280
LINE621,0.060993,-0.842177,0.060993,3.346613,0.060993,1.252218
LINE622,2.717929,-0.842398,2.717929,3.346392,2.717929,1.251997
LINE623,0.464617,-0.842430,0.464617,3.346360,0.464617,1.251965
LINE624,8.403840,-0.842311,8.403840,3.346480,8.403840,1.252085
LINE625,0.293633,-0.842119,0.293633,3.346671,0.293633,1.252276
LINE626,0.000000,1.218802,0.000000,3.314573,0.000000,1.976582
LINE627,0.625406,-0.842115,0.625406,3.346675,0.625406,1.252280
LINE628,0.060993,-0.842177,0.060993,3.346613,0.060993,1.252218
LINE629,2.717929,-0.842398,2.717929,3.346392,2.717929,1.251997
LINE630,0.464617,-0.842430,0.464617,3.346360,0.464617,1.251965
LINE631,8.403840,-0.842311,8.403840,3.346480,8.403840,1.252085
LINE632,0.293633,-0.842119,0.293633,3.346671,0.293633,1.252276
LINE633,0.000000,1.394014,0.000000,-1.301435,0.000000,1.979129
LINE634,0.625406,-0.842115,0.625406,3.346675,0.625406,1.252280
LINE635,2.717929,-0.842398,2.717929,3.346392,2.717929,1.251997
LINE636,0.464617,-0.842430,0.464617,3.346360,0.464617,1.251965
LINE637,8.403840,-0.842311,8.403840,3.346480,8.403840,1.252085
LINE638,0.293633,-0.842119,0.293633,3.346671,0.293633,1.252276
LINE639,0.000000,0.988037,0.000000,-1.392888,0.000000,1.462898
LINE640,0.625406,-0.842115,0.625406,3.346675,0.625406,1.252280
LINE641,2.717929,-0.842398,2.717929,3.346392,2.717929,1.251997
LINE642,0.464617,-0.842430,0.464617,3.346360,0.464617,1.251965
LINE643,8.403840,-0.842311,8.403840,3.346480,8.403840,1.252085
LINE644,0.000000,1.439882,0.000000,0.025413,0.000000,1.066418
LINE645,0.625406,-0.842115,0.625406,3.346675,0.625406,1.252280
LINE646,2.717929,-0.842398,2.717929,3.346392,2.717929,1.251997
LINE647,0.464617,-0.842430,0.464617,3.346360,0.464617,1.251965
LINE648,8.403840,-0.842311,8.403840,3.346480,8.403840,1.252085
LINE649,0.000000,2.115378,0.000000,1.186144,0.000000,-1.347381
LINE650,0.625406,-0.842115,0.625406,3.346675,0.625406,1.252280
LINE651,2.717929,-0.842398,2.717929,3.346392,2.717929,1.251997
LINE652,0.464617,-0.842430,0.464617,3.346360,0.464617,1.251965
LINE653,8.403840,-0.842311,8.403840,3.346480,8.403840,1.252085
LINE654,0.000000,2.592944,0.000000,-0.814868,0.000000,-1.451007
LINE655,0.082624,-0.842118,0.082624,3.346672,0.082624,1.252277
LINE656,0.542782,-0.842115,0.542782,3.346675,0.542782,1.252280
LINE657,2.717929,-0.842398,2.717929,3.346392,2.717929,1.251997
LINE658,0.464617,-0.842430,0.464617,3.346360,0.464617,1.251965
LINE659,8.403840,-0.842311,8.403840,3.346480,8.403840,1.252085
LINE660,0.000000,2.875929,0.000000,0.758656,0.000000,3.986645
LINE661,0.082624,-0.842118,0.082624,3.346672,0.082624,1.252277
LINE662,0.542782,-0.842115,0.542782,3.346675,0.542782,1.252280
LINE663,2.717929,-0.842398,2.717929,3.346392,2.717929,1.251997
LINE664,0.464617,-0.842430,0.464617,3.346360,0.464617,1.251965
LINE665,8.403840,-0.842311,8.403840,3.346480,8.403840,1.252085
LINE666,0.000000,2.984993,0.000000,-0.160380,0.000000,2.996186
LINE667,0.082624,-0.842118,0.082624,3.346672,0.082624,1.252277
LINE668,0.542782,-0.842115,0.542782,3.346675,0.542782,1.252280
LINE669,2.717929,-0.842398,2.717929,3.346392,2.717929,1.251997
LINE670,0.464617,-0.842430,0.464617,3.346360,0.464617,1.251965
LINE671,0.486220,-0.842424,0.486220,3.346367,0.486220,1.251971
LINE672,7.917621,-0.842304,7.917621,3.346487,7.917621,1.252091
LINE673,0.000000,0.935602,0.000000,2.686409,0.000000,1.949119
LINE674,0.082624,-0.842118,0.082624,3.346672,0.082624,1.252277
LINE675,0.542782,-0.842115,0.542782,3.346675,0.542782,1.252280
LINE676,2.717929,-0.842398,2.717929,3.346392,2.717929,1.251997
LINE677,0.464617,-0.842430,0.464617,3.346360,0.464617,1.251965
LINE678,0.486220,-0.842424,0.486220,3.346367,0.486220,1.251971
LINE679,7.917621,-0.842304,7.917621,3.346487,7.917621,1.252091
LINE680,0.000000,4.291395,0.000000,4.291395,0.000000,-0.243452
LINE681,0.082624,-0.842118,0.082624,3.346672,0.082624,1.252277
LINE682,2.717929,-0.842398,2.717929,3.346392,2.717929,1.251997
LINE683,0.464617,-0.842430,0.464617,3.346360,0.464617,1.251965
LINE684,0.486220,-0.842424,0.486220,3.346367,0.486220,1.251971
LINE685,7.917621,-0.842304,7.917621,3.346487,7.917621,1.252091
LINE686,2.717929,-0.842398,2.717929,3.346392,2.717929,1.251997
LINE687,0.464617,-0.842430,0.464617,3.346360,0.464617,1.251965
LINE688,0.486220,-0.842424,0.486220,3.346367,0.486220,1.251971
LINE689,0.125687,-0.842429,0.125687,3.346361,0.125687,1.251966
LINE690,7.791934,-0.842302,7.791934,3.346489,7.791934,1.252094
LINE691,2.717929,-0.842398,2.717929,3.346392,2.717929,1.251997
LINE692,0.486220,-0.842424,0.486220,3.346367,0.486220,1.251971
LINE693,0.062209,-0.842429,0.062209,3.346361,0.062209,1.251966
LINE694,0.063478,-0.842429,0.063478,3.346361,0.063478,1.251966
LINE695,2.129545,-0.842390,2.129545,3.346400,2.129545,1.252005
LINE696,5.662390,-0.842268,5.662390,3.346522,5.662390,1.252127
LINE697,2.717929,-0.842398,2.717929,3.346392,2.717929,1.251997
LINE698,0.486220,-0.842424,0.486220,3.346367,0.486220,1.251971
LINE699,0.062209,-0.842429,0.062209,3.346361,0.062209,1.251966
LINE700,0.063478,-0.842429,0.063478,3.346361,0.063478,1.251966
LINE701,2.129545,-0.842390,2.129545,3.346400,2.129545,1.252005
LINE702,5.662390,-0.842268,5.662390,3.346522,5.662390,1.252127
LINE703,2.717929,-0.842398,2.717929,3.346392,2.717929,1.251997
LINE704,0.486220,-0.842424,0.486220,3.346367,0.486220,1.251971
LINE705,0.062209,-0.842429,0.062209,3.346361,0.062209,1.251966
LINE706,5.662390,-0.842268,5.662390,3.346522,5.662390,1.252127
LINE707,0.000000,2.550874,0.000000,-0.681184,0.000000,1.552862
LINE708,2.717929,-0.842398,2.717929,3.346392,2.717929,1.251997
LINE709,0.486220,-0.842424,0.486220,3.346367,0.486220,1.251971
LINE710,0.062209,-0.842429,0.062209,3.346361,0.062209,1.251966
LINE711,5.056665,-0.842253,5.056665,3.346537,5.056665,1.252142
LINE712,0.605725,-0.842399,0.605725,3.346392,0.605725,1.251996
LINE713,0.000000,2.611924,0.000000,-0.151725,0.000000,1.778999
LINE714,2.717929,-0.842398,2.717929,3.346392,2.717929,1.251997
LINE715,0.486220,-0.842424,0.486220,3.346367,0.486220,1.251971
LINE716,0.062209,-0.842429,0.062209,3.346361,0.062209,1.251966
LINE717,5.056665,-0.842253,5.056665,3.346537,5.056665,1.252142
LINE718,0.605725,-0.842399,0.605725,3.346392,0.605725,1.251996
LINE719,0.000000,2.537375,0.000000,-0.227893,0.000000,1.938940
LINE720,2.717929,-0.842398,2.717929,3.346392,2.717929,1.251997
LINE721,0.486220,-0.842424,0.486220,3.346367,0.486220,1.251971
LINE722,0.062209,-0.842429,0.062209,3.346361,0.062209,1.251966
LINE723,4.768371,-0.842245,4.768371,3.346545,4.768371,1.252150
LINE724,0.288294,-0.842381,0.288294,3.346409,0.288294,1.252014
LINE725,0.605725,-0.842399,0.605725,3.346392,0.605725,1.251996
LINE726,0.000000,2.709373,0.000000,-0.189699,0.000000,2.315740
LINE727,2.717929,-0.842398,2.717929,3.346392,2.717929,1.251997
LINE728,0.486220,-0.842424,0.486220,3.346367,0.486220,1.251971
LINE729,0.062209,-0.842429,0.062209,3.346361,0.062209,1.251966
LINE730,4.768371,-0.842245,4.768371,3.346545,4.768371,1.252150
LINE731,0.288294,-0.842381,0.288294,3.346409,0.288294,1.252014
LINE732,0.605725,-0.842399,0.605725,3.346392,0.605725,1.251996
LINE733,0.000000,2.721469,0.000000,-0.092631,0.000000,2.160619
LINE734,2.717929,-0.842398,2.717929,3.346392,2.717929,1.251997
LINE735,0.486220,-0.842424,0.486220,3.346367,0.486220,1.251971
LINE736,0.062209,-0.842429,0.062209,3.346361,0.062209,1.251966
LINE737,4.768371,-0.842245,4.768371,3.346545,4.768371,1.252150
LINE738,0.288294,-0.842381,0.288294,3.346409,0.288294,1.252014
LINE739,0.605725,-0.842399,0.605725,3.346392,0.605725,1.251996
LINE740,0.000000,2.749352,0.000000,-0.127004,0.000000,2.270006
LINE741,2.717929,-0.842398,2.717929,3.346392,2.717929,1.251997
LINE742,0.486220,-0.842424,0.486220,3.346367,0.486220,1.251971
LINE743,0.062209,-0.842429,0.062209,3.346361,0.062209,1.251966
LINE744,4.768371,-0.842245,4.768371,3.346545,4.768371,1.252150
LINE745,0.219713,-0.842381,0.219713,3.346409,0.219713,1.252014
LINE746,0.068581,-0.842382,0.068581,3.346408,0.068581,1.252013
LINE747,0.605725,-0.842399,0.605725,3.346392,0.605725,1.251996
LINE748,0.000000,2.643881,0.000000,-0.261804,0.000000,2.459695
LINE749,2.717929,-0.842398,2.717929,3.346392,2.717929,1.251997
LINE750,0.486220,-0.842424,0.486220,3.346367,0.486220,1.251971
LINE751,0.062209,-0.842429,0.062209,3.346361,0.062209,1.251966
LINE752,4.317441,-0.842234,4.317441,3.346556,4.317441,1.252161
LINE753,0.450930,-0.842354,0.450930,3.346436,0.450930,1.252041
LINE754,0.219713,-0.842381,0.219713,3.346409,0.219713,1.252014
LINE755,0.068581,-0.842382,0.068581,3.346408,0.068581,1.252013
LINE756,0.605725,-0.842399,0.605725,3.346392,0.605725,1.251996
LINE757,0.000000,2.682871,0.000000,-0.358549,0.000000,2.402233
LINE758,2.717929,-0.842398,2.717929,3.346392,2.717929,1.251997
LINE759,0.486220,-0.842424,0.486220,3.346367,0.486220,1.251971
LINE760,0.062209,-0.842429,0.062209,3.346361,0.062209,1.251966
LINE761,4.317441,-0.842234,4.317441,3.346556,4.317441,1.252161
LINE762,0.450930,-0.842354,0.450930,3.346436,0.450930,1.252041
LINE763,0.068581,-0.842382,0.068581,3.346408,0.068581,1.252013
LINE764,0.605725,-0.842399,0.605725,3.346392,0.605725,1.251996
LINE765,0.000000,2.625265,0.000000,-0.222573,0.000000,3.491653
LINE766,2.717929,-0.842398,2.717929,3.346392,2.717929,1.251997
LINE767,0.486220,-0.842424,0.486220,3.346367,0.486220,1.251971
LINE768,0.062209,-0.842429,0.062209,3.346361,0.062209,1.251966
LINE769,4.317441,-0.842234,4.317441,3.346556,4.317441,1.252161
LINE770,0.057160,-0.842356,0.057160,3.346435,0.057160,1.252039
LINE771,0.393770,-0.842354,0.393770,3.346437,0.393770,1.252041
LINE772,0.068581,-0.842382,0.068581,3.346408,0.068581,1.252013
LINE773,0.605725,-0.842399,0.605725,3.346392,0.605725,1.251996
LINE774,0.000000,2.583870,0.000000,0.300251,0.000000,2.953089
LINE775,2.717929,-0.842398,2.717929,3.346392,2.717929,1.251997
LINE776,0.486220,-0.842424,0.486220,3.346367,0.486220,1.251971
LINE777,0.062209,-0.842429,0.062209,3.346361,0.062209,1.251966
LINE778,4.317441,-0.842234,4.317441,3.346556,4.317441,1.252161
LINE779,0.057160,-0.842356,0.057160,3.346435,0.057160,1.252039
LINE780,0.393770,-0.842354,0.393770,3.346437,0.393770,1.252041
LINE781,0.068581,-0.842382,0.068581,3.346408,0.068581,1.252013
LINE782,0.605725,-0.842399,0.605725,3.346392,0.605725,1.251996
LINE783,0.000000,2.317046,0.000000,0.355464,0.000000,3.943680
LINE784,2.717929,-0.842398,2.717929,3.346392,2.717929,1.251997
LINE785,0.486220,-0.842424,0.486220,3.346367,0.486220,1.251971
LINE786,4.317441,-0.842234,4.317441,3.346556,4.317441,1.252161
LINE787,0.393770,-0.842354,0.393770,3.346437,0.393770,1.252041
LINE788,0.068581,-0.842382,0.068581,3.346408,0.068581,1.252013
LINE789,0.605725,-0.842399,0.605725,3.346392,0.605725,1.251996
LINE790,0.000000,2.645008,0.000000,4.204711,0.000000,3.808121
LINE791,0.441788,-0.842423,0.441788,3.346367,0.441788,1.251972
LINE792,0.044432,-0.842427,0.044432,3.346364,0.044432,1.251968
LINE793,4.317441,-0.842234,4.317441,3.346556,4.317441,1.252161
LINE794,0.393770,-0.842354,0.393770,3.346437,0.393770,1.252041
LINE795,0.068581,-0.842382,0.068581,3.346408,0.068581,1.252013
LINE796,0.605725,-0.842399,0.605725,3.346392,0.605725,1.251996
LINE797,0.000000,2.730951,0.000000,3.972565,0.000000,4.036138
LINE798,0.441788,-0.842423,0.441788,3.346367,0.441788,1.251972
LINE799,0.044432,-0.842427,0.044432,3.346364,0.044432,1.251968
LINE800,0.146096,-0.842334,0.146096,3.346456,0.146096,1.252061
LINE801,4.171345,-0.842230,4.171345,3.346560,4.171345,1.252165
LINE802,0.393770,-0.842354,0.393770,3.346437,0.393770,1.252041
LINE803,0.068581,-0.842382,0.068581,3.346408,0.068581,1.252013
LINE804,0.605725,-0.842399,0.605725,3.346392,0.605725,1.251996
LINE805,0.000000,2.813452,0.000000,-0.810378,0.000000,4.435812
LINE806,0.441788,-0.842423,0.441788,3.346367,0.441788,1.251972
LINE807,0.044432,-0.842427,0.044432,3.346364,0.044432,1.251968
LINE808,0.146096,-0.842334,0.146096,3.346456,0.146096,1.252061
LINE809,4.171345,-0.842230,4.171345,3.346560,4.171345,1.252165
LINE810,0.000000,1.723576,0.000000,4.415941,0.000000,1.268589
LINE811,0.393770,-0.842354,0.393770,3.346437,0.393770,1.252041
LINE812,0.068581,-0.842382,0.068581,3.346408,0.068581,1.252013
LINE813,0.605725,-0.842399,0.605725,3.346392,0.605725,1.251996
LINE814,0.000000,3.275070,0.000000,3.740870,0.000000,-1.201209
LINE815,0.441788,-0.842423,0.441788,3.346367,0.441788,1.251972
LINE816,0.044432,-0.842427,0.044432,3.346364,0.044432,1.251968
LINE817,0.146096,-0.842334,0.146096,3.346456,0.146096,1.252061
LINE818,4.171345,-0.842230,4.171345,3.346560,4.171345,1.252165
LINE819,0.000000,2.692259,0.000000,0.563624,0.000000,-1.462247
LINE820,0.393770,-0.842354,0.393770,3.346437,0.393770,1.252041
LINE821,0.605725,-0.842399,0.605725,3.346392,0.605725,1.251996
LINE822,0.000000,3.822616,0.000000,4.588922,0.000000,3.532495
LINE823,0.441788,-0.842423,0.441788,3.346367,0.441788,1.251972
LINE824,0.146096,-0.842334,0.146096,3.346456,0.146096,1.252061
LINE825,4.171345,-0.842230,4.171345,3.346560,4.171345,1.252165
LINE826,0.000000,2.654782,0.000000,2.654782,0.000000,2.391317
LINE827,0.393770,-0.842354,0.393770,3.346437,0.393770,1.252041
LINE828,0.605725,-0.842399,0.605725,3.346392,0.605725,1.251996
LINE829,0.000000,3.204415,0.000000,-1.164187,0.000000,1.786329
LINE830,0.441788,-0.842423,0.441788,3.346367,0.441788,1.251972
LINE831,0.146096,-0.842334,0.146096,3.346456,0.146096,1.252061
LINE832,4.171345,-0.842230,4.171345,3.346560,4.171345,1.252165
LINE833,0.000000,1.545013,0.000000,1.545013,0.000000,-1.540305
LINE834,0.393770,-0.842354,0.393770,3.346437,0.393770,1.252041
LINE835,0.605725,-0.842399,0.605725,3.346392,0.605725,1.251996
LINE836,0.441788,-0.842423,0.441788,3.346367,0.441788,1.251972
LINE837,0.146096,-0.842334,0.146096,3.346456,0.146096,1.252061
LINE838,4.171345,-0.842230,4.171345,3.346560,4.171345,1.252165
LINE839,0.000000,3.010128,0.000000,-0.201681,0.000000,3.045902
LINE840,0.605725,-0.842399,0.605725,3.346392,0.605725,1.251996
LINE841,0.441788,-0.842423,0.441788,3.346367,0.441788,1.251972
LINE842,0.146096,-0.842334,0.146096,3.346456,0.146096,1.252061
LINE843,4.171345,-0.842230,4.171345,3.346560,4.171345,1.252165
LINE844,0.000000,0.120460,0.000000,3.645495,0.000000,1.883082
LINE845,0.000000,0.545408,0.000000,2.637400,0.000000,4.478595
LINE846,0.605725,-0.842399,0.605725,3.346392,0.605725,1.251996
LINE847,0.441788,-0.842423,0.441788,3.346367,0.441788,1.251972
LINE848,0.146096,-0.842334,0.146096,3.346456,0.146096,1.252061
LINE849,4.171345,-0.842230,4.171345,3.346560,4.171345,1.252165
LINE850,0.000000,0.145378,0.000000,3.946395,0.000000,1.855788
LINE851,0.000000,0.401479,0.000000,0.401479,0.000000,4.503645
LINE852,0.605725,-0.842399,0.605725,3.346392,0.605725,1.251996
LINE853,0.441788,-0.842423,0.441788,3.346367,0.441788,1.251972
LINE854,0.146096,-0.842334,0.146096,3.346456,0.146096,1.252061
LINE855,4.171345,-0.842230,4.171345,3.346560,4.171345,1.252165
LINE856,0.000000,0.246856,0.000000,4.022828,0.000000,1.853852
LINE857,0.000000,1.566660,0.000000,1.935935,0.000000,0.591313
LINE858,0.605725,-0.842399,0.605725,3.346392,0.605725,1.251996
LINE859,0.067283,-0.842426,0.067283,3.346364,0.067283,1.251969
LINE860,0.374505,-0.842423,0.374505,3.346367,0.374505,1.251972
LINE861,0.146096,-0.842334,0.146096,3.346456,0.146096,1.252061
LINE862,4.171345,-0.842230,4.171345,3.346560,4.171345,1.252165
LINE863,0.000000,-0.184143,0.000000,4.051167,0.000000,1.716142
LINE864,0.000000,1.563254,0.000000,3.223750,0.000000,-1.570793
LINE865,0.605725,-0.842399,0.605725,3.346392,0.605725,1.251996
LINE866,0.146096,-0.842334,0.146096,3.346456,0.146096,1.252061
LINE867,4.171345,-0.842230,4.171345,3.346560,4.171345,1.252165
LINE868,0.000000,-0.744973,0.000000,4.138136,0.000000,1.714495
LINE869,0.000000,4.485597,0.000000,4.204269,0.000000,1.281666
LINE870,0.605725,-0.842399,0.605725,3.346392,0.605725,1.251996
LINE871,0.146096,-0.842334,0.146096,3.346456,0.146096,1.252061
LINE872,0.247809,-0.842262,0.247809,3.346528,0.247809,1.252133
LINE873,3.923535,-0.842228,3.923535,3.346562,3.923535,1.252167
LINE874,0.000000,0.738363,0.000000,4.090005,0.000000,1.884276
LINE875,0.000000,2.939912,0.000000,2.939912,0.000000,-0.145406
LINE876,0.605725,-0.842399,0.605725,3.346392,0.605725,1.251996
LINE877,0.146096,-0.842334,0.146096,3.346456,0.146096,1.252061
LINE878,0.247809,-0.842262,0.247809,3.346528,0.247809,1.252133
LINE879,3.923535,-0.842228,3.923535,3.346562,3.923535,1.252167
LINE880,0.000000,-0.201681,0.000000,-0.201681,0.000000,2.996186
LINE881,0.000000,3.561300,0.000000,0.094804,0.000000,2.599517
LINE882,0.605725,-0.842399,0.605725,3.346392,0.605725,1.251996
LINE883,0.146096,-0.842334,0.146096,3.346456,0.146096,1.252061
LINE884,0.247809,-0.842262,0.247809,3.346528,0.247809,1.252133
LINE885,3.923535,-0.842228,3.923535,3.346562,3.923535,1.252167
LINE886,0.605725,-0.842399,0.605725,3.346392,0.605725,1.251996
LINE887,0.076224,-0.842334,0.076224,3.346457,0.076224,1.252061
LINE888,0.069872,-0.842334,0.069872,3.346456,0.069872,1.252061
LINE889,0.247809,-0.842262,0.247809,3.346528,0.247809,1.252133
LINE890,0.605725,-0.842399,0.605725,3.346392,0.605725,1.251996
LINE891,0.076224,-0.842334,0.076224,3.346457,0.076224,1.252061
LINE892,0.069872,-0.842334,0.069872,3.346456,0.069872,1.252061
LINE893,0.247809,-0.842262,0.247809,3.346528,0.247809,1.252133
LINE894,0.294609,-0.842398,0.294609,3.346393,0.294609,1.251998
LINE895,0.311115,-0.842400,0.311115,3.346391,0.311115,1.251995
LINE896,0.076224,-0.842334,0.076224,3.346457,0.076224,1.252061
LINE897,0.069872,-0.842334,0.069872,3.346456,0.069872,1.252061
LINE898,0.247809,-0.842262,0.247809,3.346528,0.247809,1.252133
LINE899,0.294609,-0.842398,0.294609,3.346393,0.294609,1.251998
LINE900,0.076224,-0.842334,0.076224,3.346457,0.076224,1.252061
LINE901,0.076224,-0.842334,0.076224,3.346457,0.076224,1.252061
LINE902,0.076224,-0.842334,0.076224,3.346457,0.076224,1.252061
LINE903,0.076224,-0.842334,0.076224,3.346457,0.076224,1.252061
LINE904,0.076224,-0.842334,0.076224,3.346457,0.076224,1.252061
LINE905,0.076224,-0.842334,0.076224,3.346457,0.076224,1.252061
